<?xml version="1.0" encoding="UTF-8"?>

<!-- generated on 2023-08-28 11:58:06 by Eclipse SUMO netedit Version 1.11.0
-->

<routes xmlns:xsi="http://www.w3.org/2001/XMLSchema-instance" xsi:noNamespaceSchemaLocation="http://sumo.dlr.de/xsd/routes_file.xsd">
    <route edges="E0 E1 E2 E3" color="yellow" id="route_0"/>
    <route edges="E4 E5 E6 E7" color="yellow" id="route_1"/>
    <vehicle id="vehicle_0" depart="0.00" route="route_0"/>
    <vehicle id="vehicle_1" depart="0.00" route="route_0"/>
    <vehicle id="vehicle_2" depart="0.00" route="route_0"/>
    <vehicle id="vehicle_3" depart="0.00" route="route_0"/>
    <vehicle id="vehicle_4" depart="0.00" route="route_0"/>
    <vehicle id="vehicle_5" depart="0.00" route="route_1"/>
    <vehicle id="vehicle_6" depart="0.00" route="route_1"/>
    <vehicle id="vehicle_7" depart="0.00" route="route_1"/>
    <vehicle id="vehicle_8" depart="0.00" route="route_1"/>
    <vehicle id="vehicle_9" depart="0.00" route="route_1"/>
</routes>
